[TITLE]
;;Project Title/Notes

[OPTIONS]
;;Option             Value
FLOW_UNITS           CFS
INFILTRATION         GREEN_AMPT
FLOW_ROUTING         DYNWAVE
LINK_OFFSETS         DEPTH
MIN_SLOPE            0
ALLOW_PONDING        NO
SKIP_STEADY_STATE    NO

START_DATE           01/01/2014
START_TIME           00:00:00
REPORT_START_DATE    01/01/2014
REPORT_START_TIME    00:00:00
END_DATE             01/01/2014
END_TIME             03:00:00
SWEEP_START          01/01
SWEEP_END            12/31
DRY_DAYS             0
REPORT_STEP          00:05:00
WET_STEP             00:00:30
DRY_STEP             00:05:00
ROUTING_STEP         0:00:30 

INERTIAL_DAMPING     PARTIAL
NORMAL_FLOW_LIMITED  BOTH
FORCE_MAIN_EQUATION  H-W
VARIABLE_STEP        0.75
LENGTHENING_STEP     0
MIN_SURFAREA         12.557
MAX_TRIALS           8
HEAD_TOLERANCE       0.005
SYS_FLOW_TOL         5
LAT_FLOW_TOL         5
MINIMUM_STEP         0.5
THREADS              1

[EVAPORATION]
;;Data Source    Parameters
;;-------------- ----------------
CONSTANT         0.0
DRY_ONLY         YES

[RAINGAGES]
;;Name           Format    Interval SCF      Source    
;;-------------- --------- ------ ------ ----------
1                VOLUME    0:05     1.0      TIMESERIES 200yr_3hrs      

[SUBCATCHMENTS]
;;Name           Rain Gage        Outlet           Area     %Imperv  Width    %Slope   CurbLen  SnowPack        
;;-------------- ---------------- ---------------- -------- -------- -------- -------- -------- ----------------
;LS%	1	0	0	0.4	0.4	0.4	0.65	0.7
10               1                57               0.08     70       40       2.5      0                        
;LS%	0.707865169	0.292134831	0	0.4	0.4	0.4	0.65	0.7
11               1                19               0.94     80       54.02    10       0                        
;LS%	0.4	0.6	0	0.4	0.4	0.4	0.65	0.7
12               1                54               0.21     80       349      5.7      0                        
;LS%	0.933259177	0.066740823	0	0.4	0.4	0.4	0.65	0.7
13               1                54               0.82     50       280      10       0                        
;LS%	0.789473684	0.210526316	0	0.4	0.4	0.4	0.65	0.7
14               1                58               0.16     70       73       2.5      0                        
;LS%	0.537815126	0.462184874	0	0.4	0.4	0.4	0.65	0.7
15               1                59               0.45     70       148      10       0                        
;LS%	1	0	0	0.4	0.4	0.4	0.65	0.7
16               1                60               0.11     70       72       2.5      0                        
;LS%	0.842900302	0.157099698	0	0.4	0.4	0.4	0.65	0.7
17               1                61               0.61     70       170      10       0                        
;LS%	0.810945274	0.189054726	0	0.4	0.4	0.4	0.65	0.7
18               1                92               0.24     80       10       15       0                        
;LS%	0	0	0	0.4	0.4	0.4	0.65	0.7
19               1                88               0.36     70       18.64    15       0                        
;LS%	0.901408451	0.098591549	0	0.4	0.4	0.4	0.65	0.7
2                1                4                1.19     70       774.49   10       0                        
;LS%	0.902702703	0.097297297	0	0.4	0.4	0.4	0.65	0.7
20               1                88               1.07     30       23.85    10       0                        
;LS%	0.146788991	0.853211009	0	0.4	0.4	0.4	0.65	0.7
21               1                33               0.89     10       183.26   5.6      0                        
;LS%	0.984478936	0.015521064	0	0.4	0.4	0.4	0.65	0.7
22               1                87               1        70       216      10       0                        
;LS%	0	0	0	0.4	0.4	0.4	0.65	0.7
23               1                63               0.08     70       16.04    2.5      0                        
;LS%	1	0	0	0.4	0.4	0.4	0.65	0.7
24               1                63               0.09     70       15.46    2.5      0                        
;LS%	0.552275523	0.447724477	0	0.4	0.4	0.4	0.65	0.7
25               1                65               0.66     50       141.38   10       0                        
;LS%	0.781105991	0.218894009	0	0.4	0.4	0.4	0.65	0.7
26               1                67               1.39     20       248.42   2.6      0                        
;LS%	0.259259259	0.740740741	0	0.4	0.4	0.4	0.65	0.7
27               1                66               0.8      70       190.27   3.9      0                        
;LS%	0.461297666	0.538702334	0	0.4	0.4	0.4	0.65	0.7
28               1                29               1.1      10       365.73   3.7      0                        
;LS%	0.066666667	0.933333333	0	0.4	0.4	0.4	0.65	0.7
29               1                30               0.28     90       42.32    10       0                        
;LS%	0.648202711	0.351797289	0	0.4	0.4	0.4	0.65	0.7
3                1                4                0.46     5        167.75   11.5     0                        
;LS%	0.938118112	0.061881888	0	0.4	0.4	0.4	0.65	0.7
30               1                86               3.86     85       264.51   15       0                        
;LS%	0.725490196	0.274509804	0	0.4	0.4	0.4	0.65	0.7
31               1                81               0.18     90       25.31    2.5      0                        
;LS%	0.80952381	0.19047619	0	0.4	0.4	0.4	0.65	0.7
32               1                80               0.36     90       30       2.5      0                        
;LS%	0.870588235	0.129411765	0	0.4	0.4	0.4	0.65	0.7
33               1                82               0.6      90       217.06   10       0                        
;LS%	0.954248366	0.045751634	0	0.4	0.4	0.4	0.65	0.7
34               1                83               0.26     90       50.91    2.5      0                        
;LS%	0.285714286	0.714285714	0	0.4	0.4	0.4	0.65	0.7
35               1                80               0.13     90       33.83    2.5      0                        
;LS%	0.704545455	0.295454545	0	0.4	0.4	0.4	0.65	0.7
36               1                73               0.25     90       87.2     2.5      0                        
;LS%	0.564102564	0.435897436	0	0.4	0.4	0.4	0.65	0.7
37               1                85               0.12     90       45.29    2.5      0                        
;LS%	0.678571429	0.321428571	0	0.4	0.4	0.4	0.65	0.7
38               1                73               0.13     90       32.42    2.5      0                        
;LS%	0.967773922	0.032226078	0	0.4	0.4	0.4	0.65	0.7
39               1                79               0.74     10       101.26   5.5      0                        
;LS%	0.707317073	0.292682927	0	0.4	0.4	0.4	0.65	0.7
4                1                5                0.32     70       250      10       0                        
;LS%	0.836090226	0.163909774	0	0.4	0.4	0.4	0.65	0.7
40               1                77               0.74     70       102.96   10       0                        
;LS%	0.275862069	0.724137931	0	0.4	0.4	0.4	0.65	0.7
41               1                78               0.2      90       55.08    2.5      0                        
;LS%	1	0	0	0.4	0.4	0.4	0.65	0.7
42               1                78               0.19     90       59.84    4.5      0                        
;LS%	1	0	0	0.4	0.4	0.4	0.65	0.7
43               1                79               0.14     90       54.69    2.5      0                        
;LS%	0.917127072	0.082872928	0	0.4	0.4	0.4	0.65	0.7
44               1                76               0.54     40       189.94   4        0                        
;LS%	0.661087866	0.338912134	0	0.4	0.4	0.4	0.65	0.7
45               1                75               0.4      60       78.45    5.5      0                        
;LS%	0.697768763	0.302231237	0	0.4	0.4	0.4	0.65	0.7
46               1                68               0.27     50       65.16    4.7      0                        
;LS%	1	0	0	0.4	0.4	0.4	0.65	0.7
47               1                69               0.54     80       109.3    4.1      0                        
;LS%	0.785714286	0.214285714	0	0.4	0.4	0.4	0.65	0.7
48               1                72               0.25     90       50.99    2.5      0                        
;LS%	0.981119792	0.018880208	0	0.4	0.4	0.4	0.65	0.7
49               1                71               0.59     15       100.93   5.4      0                        
;LS%	0.671875	0.328125	0	0.4	0.4	0.4	0.65	0.7
5                1                8                0.73     60       388      10       0                        
;LS%	1	0	0	0.4	0.4	0.4	0.65	0.7
50               1                70               0.16     10       42.9     4.3      0                        
;LS%	0.92	0.08	0	0.4	0.4	0.4	0.65	0.7
51               1                70               0.37     90       61.58    2.5      0                        
;LS%	0.607142857	0.392857143	0	0.4	0.4	0.4	0.65	0.7
52               1                74               0.98     70       60.92    10       0                        
;LS%	0.416666667	0.583333333	0	0.4	0.4	0.4	0.65	0.7
53               1                68               0.13     90       148.99   5        0                        
;LS%	1	0	0	0.4	0.4	0.4	0.65	0.7
6                1                7                0.21     5        69       3.6      0                        
;LS%	1	0	0	0.4	0.4	0.4	0.65	0.7
7                1                5                0.18     70       221      6.5      0                        
;LS%	1	0	0	0.4	0.4	0.4	0.65	0.7
8                1                56               0.61     60       247.6    10       0                        
;LS%	1	0	0	0.4	0.4	0.4	0.65	0.7
9                1                13               0.15     5        82.78    8.3      0                        

[SUBAREAS]
;;Subcatchment   N-Imperv   N-Perv     S-Imperv   S-Perv     PctZero    RouteTo    PctRouted 
;;-------------- ---------- ---------- ---------- ---------- ---------- ---------- ----------
10               0.011      0.05       0.025      0.30       25         PERVIOUS   100       
11               0.011      0.05       0.025      0.15       25         PERVIOUS   100       
12               0.011      0.05       0.025      0.15       25         PERVIOUS   100       
13               0.011      0.05       0.025      0.10       25         PERVIOUS   100       
14               0.011      0.05       0.025      0.30       25         PERVIOUS   100       
15               0.011      0.05       0.025      0.1        25         PERVIOUS   100       
16               0.011      0.05       0.025      0.30       25         PERVIOUS   100       
17               0.011      0.05       0.025      0.10       25         PERVIOUS   100       
18               0.011      0.05       0.025      0.15       25         PERVIOUS   100       
19               0.011      0.05       0.025      0.15       25         PERVIOUS   100       
2                0.011      0.05       0.025      0.1        0          PERVIOUS   100       
20               0.011      0.05       0.025      0.25       25         PERVIOUS   100       
21               0.011      0.13       0.05       0.30       25         PERVIOUS   100       
22               0.011      0.05       0.025      0.20       50         PERVIOUS   100       
23               0.016      0.80       0.025      0.30       25         PERVIOUS   100       
24               0.016      0.40       0.025      0.25       25         PERVIOUS   100       
25               0.011      0.15       0.025      0.10       25         PERVIOUS   100       
26               0.012      0.1        0.025      0.20       25         PERVIOUS   100       
27               0.011      0.15       0.025      0.15       25         PERVIOUS   100       
28               0.014      0.15       0.025      0.15       25         PERVIOUS   100       
29               0.011      0.15       0.005      0.10       25         IMPERVIOUS 100       
3                0.011      0.13       0.025      0.25       25         PERVIOUS   95        
30               0.011      0.15       0.025      0.10       25         PERVIOUS   1         
31               0.016      0.40       0.025      0.30       25         PERVIOUS   50        
32               0.016      0.40       0.025      0.30       25         PERVIOUS   90        
33               0.011      0.15       0.025      0.10       25         IMPERVIOUS 100       
34               0.016      0.40       0.025      0.30       25         PERVIOUS   50        
35               0.016      0.40       0.025      0.30       25         PERVIOUS   80        
36               0.016      0.40       0.025      0.30       25         PERVIOUS   50        
37               0.016      0.40       0.025      0.30       25         PERVIOUS   50        
38               0.016      0.40       0.025      0.30       25         PERVIOUS   50        
39               0.013      0.15       0.005      0.10       25         PERVIOUS   90        
4                0.011      0.05       0.025      0.10       25         PERVIOUS   100       
40               0.011      0.15       0.025      0.10       25         PERVIOUS   10        
41               0.016      0.15       0.025      0.15       25         PERVIOUS   50        
42               0.011      0.15       0.025      0.10       25         PERVIOUS   20        
43               0.016      0.40       0.025      0.30       25         PERVIOUS   60        
44               0.013      0.15       0.025      0.10       25         PERVIOUS   60        
45               0.014      0.15       0.025      0.10       25         PERVIOUS   70        
46               0.011      0.15       0.025      0.10       25         PERVIOUS   20        
47               0.013      0.40       0.025      0.30       25         PERVIOUS   50        
48               0.016      0.40       0.025      0.30       25         PERVIOUS   50        
49               0.012      0.15       0.025      0.10       25         PERVIOUS   100       
5                0.011      0.05       0.025      0.10       25         PERVIOUS   100       
50               0.011      0.15       0.025      0.10       25         IMPERVIOUS 95        
51               0.016      0.40       0.025      0.30       25         PERVIOUS   50        
52               0.013      0.15       0.025      0.10       25         PERVIOUS   70        
53               0.013      0.15       0.025      0.20       25         PERVIOUS   50        
6                0.011      0.40       0.025      0.25       25         PERVIOUS   95        
7                0.011      0.15       0.025      0.10       25         PERVIOUS   100       
8                0.011      0.05       0.025      0.10       25         PERVIOUS   100       
9                0.011      0.05       0.025      0.15       25         PERVIOUS   100       

[INFILTRATION]
;;Subcatchment   Suction    Ksat       IMD       
;;-------------- ---------- ---------- ----------
10               3.5        0.61       0.31      
11               3.5        0.61       0.31      
12               3.5        0.61       0.31      
13               3.5        0.61       0.31      
14               3.5        0.61       0.31      
15               3.5        0.61       0.31      
16               3.5        0.61       0.31      
17               3.5        0.61       0.31      
18               3.5        0.61       0.31      
19               3.5        0.61       0.31      
2                3.5        0.61       0.31      
20               3.5        0.61       0.31      
21               3.5        0.61       0.31      
22               3.5        0.61       0.31      
23               3.5        0.61       0.31      
24               3.5        0.61       0.31      
25               3.5        0.61       0.31      
26               3.5        0.61       0.31      
27               3.5        0.61       0.31      
28               3.5        0.61       0.31      
29               3.5        0.61       0.31      
3                3.5        0.61       0.31      
30               3.5        0.61       0.31      
31               3.5        0.61       0.31      
32               3.5        0.61       0.31      
33               3.5        0.61       0.31      
34               3.5        0.61       0.31      
35               3.5        0.61       0.31      
36               3.5        0.61       0.31      
37               3.5        0.61       0.31      
38               3.5        0.61       0.31      
39               3.5        0.61       0.31      
4                3.5        0.61       0.31      
40               3.5        0.61       0.31      
41               3.5        0.61       0.31      
42               3.5        0.61       0.31      
43               3.5        0.61       0.31      
44               3.5        0.61       0.31      
45               3.5        0.61       0.31      
46               3.5        0.61       0.31      
47               3.5        0.61       0.31      
48               3.5        0.61       0.31      
49               3.5        0.61       0.31      
5                3.5        0.61       0.31      
50               3.5        0.61       0.31      
51               3.5        0.61       0.31      
52               3.5        0.61       0.31      
53               3.5        0.61       0.31      
6                3.5        0.61       0.31      
7                3.5        0.61       0.31      
8                3.5        0.61       0.31      
9                3.5        0.61       0.31      

[LID_CONTROLS]
;;Name           Type/Layer Parameters
;;-------------- ---------- ----------
BR_1             BC
BR_1             SURFACE    49.3177    0.3        0.15       4.545      5         
BR_1             SOIL       24         0.475      0.378      0.265      0.022      10         12.6      
BR_1             STORAGE    24         0.53       1344       0         
BR_1             DRAIN      0          0.5        0          6         

BR_ParkingLot    BC
BR_ParkingLot    SURFACE    49.3177    0.3        0.15       4.545      5         
BR_ParkingLot    SOIL       24         0.46       0.1        0.05       4.26       7.5        1.9       
BR_ParkingLot    STORAGE    24         0.53       1344       0         
BR_ParkingLot    DRAIN      0          0.5        0          6         

GR_1             BC
GR_1             SURFACE    0.0        0.0        0.1        1.0        5         
GR_1             SOIL       6          0.5        0.2        0.1        0.5        10.0       3.5       
GR_1             STORAGE    0          0.75       10         0         
GR_1             DRAIN      0          0.5        0          6         

[LID_USAGE]
;;Subcatchment   LID Process      Number  Area       Width      InitSat    FromImp    ToPerv     RptFile                  DrainTo         
;;-------------- ---------------- ------- ---------- ---------- ---------- ---------- ---------- ------------------------ ----------------

[AQUIFERS]
;;Name           Por    WP     FC     Ksat   Kslope Tslope ETu    ETs    Seep   Ebot   Egw    Umc    ETupat 
;;-------------- ------ ------ ------ ------ ------ ------ ------ ------ ------ ------ ------ ------ ------
Aq_1             0.459  0.148  0.288  0.35   19     500    0.35   14.0   0.002  0      0      0.148        

[GROUNDWATER]
;;Subcatchment   Aquifer          Node             Esurf  A1     B1     A2     B2     A3     Dsw    Egwt   Ebot   Wgr    Umc   
;;-------------- ---------------- ---------------- ------ ------ ------ ------ ------ ------ ------ ------ ------ ------ ------
10               Aq_1             91               6.6    0      0      0      0      0      0      *     
11               Aq_1             91               6.6    0      0      0      0      0      0      *     
12               Aq_1             91               6.6    0      0      0      0      0      0      *     
13               Aq_1             91               6.6    0      0      0      0      0      0      *     
14               Aq_1             91               6.6    0      0      0      0      0      0      *     
15               Aq_1             91               6.6    0      0      0      0      0      0      *     
16               Aq_1             91               6.6    0      0      0      0      0      0      *     
17               Aq_1             91               6.6    0      0      0      0      0      0      *     
18               Aq_1             91               6.6    0      0      0      0      0      0      *     
19               Aq_1             91               6.6    0      0      0      0      0      0      *     
2                Aq_1             91               6.6    0      0      0      0      0      0      *     
20               Aq_1             91               6.6    0      0      0      0      0      0      *     
21               Aq_1             91               6.6    0      0      0      0      0      0      *     
22               Aq_1             91               6.6    0      0      0      0      0      0      *     
23               Aq_1             91               6.6    0      0      0      0      0      0      *     
24               Aq_1             91               6.6    0      0      0      0      0      0      *     
25               Aq_1             91               6.6    0      0      0      0      0      0      *     
26               Aq_1             91               6.6    0      0      0      0      0      0      *     
27               Aq_1             91               6.6    0      0      0      0      0      0      *     
28               Aq_1             91               6.6    0      0      0      0      0      0      *     
29               Aq_1             91               6.6    0      0      0      0      0      0      *     
3                Aq_1             91               6.6    0      0      0      0      0      0      *     
30               Aq_1             91               6.6    0      0      0      0      0      0      *     
31               Aq_1             91               6.6    0      0      0      0      0      0      *     
32               Aq_1             91               6.6    0      0      0      0      0      0      *     
33               Aq_1             91               6.6    0      0      0      0      0      0      *     
34               Aq_1             91               6.6    0      0      0      0      0      0      *     
35               Aq_1             91               6.6    0      0      0      0      0      0      *     
36               Aq_1             91               6.6    0      0      0      0      0      0      *     
37               Aq_1             91               6.6    0      0      0      0      0      0      *     
38               Aq_1             91               6.6    0      0      0      0      0      0      *     
39               Aq_1             91               6.6    0      0      0      0      0      0      *     
4                Aq_1             91               6.6    0      0      0      0      0      0      *     
40               Aq_1             91               6.6    0      0      0      0      0      0      *     
41               Aq_1             91               6.6    0      0      0      0      0      0      *     
42               Aq_1             91               6.6    0      0      0      0      0      0      *     
43               Aq_1             91               6.6    0      0      0      0      0      0      *     
44               Aq_1             91               6.6    0      0      0      0      0      0      *     
45               Aq_1             91               6.6    0      0      0      0      0      0      *     
46               Aq_1             91               6.6    0      0      0      0      0      0      *     
47               Aq_1             91               6.6    0      0      0      0      0      0      *     
48               Aq_1             91               6.6    0      0      0      0      0      0      *     
49               Aq_1             91               6.6    0      0      0      0      0      0      *     
5                Aq_1             91               6.6    0      0      0      0      0      0      *     
50               Aq_1             91               6.6    0      0      0      0      0      0      *     
51               Aq_1             91               6.6    0      0      0      0      0      0      *     
52               Aq_1             91               6.6    0      0      0      0      0      0      *     
53               Aq_1             91               6.6    0      0      0      0      0      0      *     
6                Aq_1             91               6.6    0      0      0      0      0      0      *     
7                Aq_1             91               6.6    0      0      0      0      0      0      *     
8                Aq_1             91               6.6    0      0      0      0      0      0      *     
9                Aq_1             91               6.6    0      0      0      0      0      0      *     

[JUNCTIONS]
;;Name           Elevation  MaxDepth   InitDepth  SurDepth   Aponded   
;;-------------- ---------- ---------- ---------- ---------- ----------
54               4991       0          0          0          0         
55               4981       0          0          0          0         
56               4991.94    0          0          0          0         
57               4980.43    0          0          0          0         
58               4971.02    0          0          0          0         
59               4967       0          0          0          0         
60               4965.10    0          0          0          0         
61               4960       0          0          0          0         
62               4955       0          0          0          0         
63               4944.85    0          0          0          0         
65               4924       0          0          0          0         
66               4927       0          0          0          0         
67               4926       0          0          0          0         
68               4914       0          0          0          0         
69               4904       0          0          0          0         
70               4894       0          0          0          0         
71               4922       0          0          0          0         
72               4924       0          0          0          0         
73               4925       0          0          0          0         
74               4884       0          0          0          0         
75               4874       0          0          0          0         
76               4864       0          0          0          0         
77               4906       0          0          0          0         
78               4907       0          0          0          0         
79               4921       0          0          0          0         
80               4920       0          0          0          0         
81               4921       0          0          0          0         
82               4930       0          0          0          0         
83               4932       0          0          0          0         
84               4934       0          0          0          0         
85               4908       0          0          0          0         
86               4854       0          0          0          0         
87               4946.77    0          0          0          0         
88               4925       0          0          0          0         
90               4844       0          0          0          0         
92               4939.41    0          0          0          0         

[OUTFALLS]
;;Name           Elevation  Type       Stage Data       Gated    Route To        
;;-------------- ---------- ---------- ---------------- -------- ----------------
1                0          FREE                        NO                       
64               0          FREE                        NO                       
89               0          FREE                        NO                       
91               4800       FREE                        NO                       

[STORAGE]
;;Name           Elev.    MaxDepth   InitDepth  Shape      Curve Name/Params            N/A      Fevap    Psi      Ksat     IMD     
;;-------------- -------- ---------- ----------- ---------- ---------------------------- -------- --------          -------- --------
93               4834     3          0          FUNCTIONAL 1000      0         0        0        0       

[CONDUITS]
;;Name           From Node        To Node          Length     Roughness  InOffset   OutOffset  InitFlow   MaxFlow   
;;-------------- ---------------- ---------------- ---------- ---------- ---------- ---------- ---------- ----------
1                54               55               45         0.011      0          0          0          0         
10               63               65               363.9      0.011      0          0          0          0         
11               66               67               261.98     0.011      0          0          0          0         
12               67               88               158.16     0.011      0          0          0          0         